[root]
type=Root
children=system
eventq_index=0
full_system=false
sim_quantum=0
time_sync_enable=false
time_sync_period=100000000000
time_sync_spin_threshold=100000000

[system]
type=System
children=clk_domain cpu0 cpu1 cpu2 cpu3 cpu_clk_domain cpu_voltage_domain dvfs_handler l3 mem_ctrls membus tol3bus voltage_domain
boot_osflags=a
cache_line_size=64
clk_domain=system.clk_domain
default_p_state=UNDEFINED
eventq_index=0
exit_on_work_items=false
init_param=0
kernel=
kernel_addr_check=true
kernel_extras=
kvm_vm=Null
load_addr_mask=18446744073709551615
load_offset=0
mem_mode=timing
mem_ranges=0:34359738367:0:0:0:0
memories=system.mem_ctrls
mmap_using_noreserve=false
multi_thread=false
num_work_ids=16
p_state_clk_gate_bins=20
p_state_clk_gate_max=1000000000000
p_state_clk_gate_min=1000
power_model=
readfile=
symbolfile=
thermal_components=
thermal_model=Null
work_begin_ckpt_count=0
work_begin_cpu_id_exit=-1
work_begin_exit_count=0
work_cpus_ckpt_count=0
work_end_ckpt_count=0
work_end_exit_count=0
work_item_id=-1
system_port=system.membus.slave[0]

[system.clk_domain]
type=SrcClockDomain
clock=1000
domain_id=-1
eventq_index=0
init_perf_level=0
voltage_domain=system.voltage_domain

[system.cpu0]
type=DerivO3CPU
children=apic_clk_domain branchPred dcache dtb dtb_walker_cache fuPool icache interrupts isa itb itb_walker_cache l2cache toL2Bus tracer workload
LFSTSize=1024
LQEntries=32
LSQCheckLoads=true
LSQDepCheckShift=4
SQEntries=32
SSITSize=1024
activity=0
backComSize=5
branchPred=system.cpu0.branchPred
cacheStorePorts=200
checker=Null
clk_domain=system.cpu_clk_domain
commitToDecodeDelay=1
commitToFetchDelay=1
commitToIEWDelay=1
commitToRenameDelay=1
commitWidth=8
cpu_id=0
decodeToFetchDelay=1
decodeToRenameDelay=1
decodeWidth=8
default_p_state=UNDEFINED
dispatchWidth=8
do_checkpoint_insts=true
do_quiesce=true
do_statistics_insts=true
dtb=system.cpu0.dtb
eventq_index=0
fetchBufferSize=64
fetchQueueSize=32
fetchToDecodeDelay=1
fetchTrapLatency=1
fetchWidth=8
forwardComSize=5
fuPool=system.cpu0.fuPool
function_trace=false
function_trace_start=0
iewToCommitDelay=1
iewToDecodeDelay=1
iewToFetchDelay=1
iewToRenameDelay=1
interrupts=system.cpu0.interrupts
isa=system.cpu0.isa
issueToExecuteDelay=1
issueWidth=8
itb=system.cpu0.itb
max_insts_all_threads=0
max_insts_any_thread=10000000
max_loads_all_threads=0
max_loads_any_thread=0
needsTSO=true
numIQEntries=64
numPhysCCRegs=1280
numPhysFloatRegs=256
numPhysIntRegs=256
numPhysVecRegs=256
numROBEntries=192
numRobs=1
numThreads=1
p_state_clk_gate_bins=20
p_state_clk_gate_max=1000000000000
p_state_clk_gate_min=1000
power_gating_on_idle=false
power_model=
profile=0
progress_interval=0
pwr_gating_latency=300
renameToDecodeDelay=1
renameToFetchDelay=1
renameToIEWDelay=2
renameToROBDelay=1
renameWidth=8
simpoint_start_insts=
smtCommitPolicy=RoundRobin
smtFetchPolicy=SingleThread
smtIQPolicy=Partitioned
smtIQThreshold=100
smtLSQPolicy=Partitioned
smtLSQThreshold=100
smtNumFetchingThreads=1
smtROBPolicy=Partitioned
smtROBThreshold=100
socket_id=0
squashWidth=8
store_set_clear_period=250000
switched_out=false
syscallRetryLatency=10000
system=system
tracer=system.cpu0.tracer
trapLatency=13
wait_for_remote_gdb=false
wbWidth=8
workload=system.cpu0.workload
dcache_port=system.cpu0.dcache.cpu_side
icache_port=system.cpu0.icache.cpu_side

[system.cpu0.apic_clk_domain]
type=DerivedClockDomain
clk_divider=16
clk_domain=system.cpu_clk_domain
eventq_index=0

[system.cpu0.branchPred]
type=TournamentBP
BTBEntries=4096
BTBTagSize=16
RASSize=16
choiceCtrBits=2
choicePredictorSize=8192
eventq_index=0
globalCtrBits=2
globalPredictorSize=8192
indirectHashGHR=true
indirectHashTargets=true
indirectPathLength=3
indirectSets=256
indirectTagSize=16
indirectWays=2
instShiftAmt=2
localCtrBits=2
localHistoryTableSize=2048
localPredictorSize=2048
numThreads=1
useIndirect=true

[system.cpu0.dcache]
type=Cache
children=replacement_policy tags
addr_ranges=0:18446744073709551615:0:0:0:0
assoc=8
clk_domain=system.cpu_clk_domain
clusivity=mostly_incl
data_latency=2
default_p_state=UNDEFINED
demand_mshr_reserve=1
eventq_index=0
is_read_only=false
max_miss_count=0
mshrs=4
p_state_clk_gate_bins=20
p_state_clk_gate_max=1000000000000
p_state_clk_gate_min=1000
power_model=
prefetch_on_access=false
prefetcher=Null
replacement_policy=system.cpu0.dcache.replacement_policy
response_latency=2
sequential_access=false
size=32768
system=system
tag_latency=2
tags=system.cpu0.dcache.tags
tgts_per_mshr=20
warmup_percentage=0
write_buffers=8
writeback_clean=false
cpu_side=system.cpu0.dcache_port
mem_side=system.cpu0.toL2Bus.slave[1]

[system.cpu0.dcache.replacement_policy]
type=LRURP
eventq_index=0

[system.cpu0.dcache.tags]
type=BaseSetAssoc
assoc=8
block_size=64
clk_domain=system.cpu_clk_domain
data_latency=2
default_p_state=UNDEFINED
eventq_index=0
p_state_clk_gate_bins=20
p_state_clk_gate_max=1000000000000
p_state_clk_gate_min=1000
power_model=
replacement_policy=system.cpu0.dcache.replacement_policy
sequential_access=false
size=32768
tag_latency=2
warmup_percentage=0

[system.cpu0.dtb]
type=X86TLB
children=walker
eventq_index=0
size=64
walker=system.cpu0.dtb.walker

[system.cpu0.dtb.walker]
type=X86PagetableWalker
clk_domain=system.cpu_clk_domain
default_p_state=UNDEFINED
eventq_index=0
num_squash_per_cycle=4
p_state_clk_gate_bins=20
p_state_clk_gate_max=1000000000000
p_state_clk_gate_min=1000
power_model=
system=system
port=system.cpu0.dtb_walker_cache.cpu_side

[system.cpu0.dtb_walker_cache]
type=Cache
children=replacement_policy tags
addr_ranges=0:18446744073709551615:0:0:0:0
assoc=2
clk_domain=system.cpu_clk_domain
clusivity=mostly_incl
data_latency=2
default_p_state=UNDEFINED
demand_mshr_reserve=1
eventq_index=0
is_read_only=false
max_miss_count=0
mshrs=10
p_state_clk_gate_bins=20
p_state_clk_gate_max=1000000000000
p_state_clk_gate_min=1000
power_model=
prefetch_on_access=false
prefetcher=Null
replacement_policy=system.cpu0.dtb_walker_cache.replacement_policy
response_latency=2
sequential_access=false
size=1024
system=system
tag_latency=2
tags=system.cpu0.dtb_walker_cache.tags
tgts_per_mshr=12
warmup_percentage=0
write_buffers=8
writeback_clean=false
cpu_side=system.cpu0.dtb.walker.port
mem_side=system.cpu0.toL2Bus.slave[3]

[system.cpu0.dtb_walker_cache.replacement_policy]
type=LRURP
eventq_index=0

[system.cpu0.dtb_walker_cache.tags]
type=BaseSetAssoc
assoc=2
block_size=64
clk_domain=system.cpu_clk_domain
data_latency=2
default_p_state=UNDEFINED
eventq_index=0
p_state_clk_gate_bins=20
p_state_clk_gate_max=1000000000000
p_state_clk_gate_min=1000
power_model=
replacement_policy=system.cpu0.dtb_walker_cache.replacement_policy
sequential_access=false
size=1024
tag_latency=2
warmup_percentage=0

[system.cpu0.fuPool]
type=FUPool
children=FUList0 FUList1 FUList2 FUList3 FUList4 FUList5 FUList6 FUList7 FUList8
FUList=system.cpu0.fuPool.FUList0 system.cpu0.fuPool.FUList1 system.cpu0.fuPool.FUList2 system.cpu0.fuPool.FUList3 system.cpu0.fuPool.FUList4 system.cpu0.fuPool.FUList5 system.cpu0.fuPool.FUList6 system.cpu0.fuPool.FUList7 system.cpu0.fuPool.FUList8
eventq_index=0

[system.cpu0.fuPool.FUList0]
type=FUDesc
children=opList
count=6
eventq_index=0
opList=system.cpu0.fuPool.FUList0.opList

[system.cpu0.fuPool.FUList0.opList]
type=OpDesc
eventq_index=0
opClass=IntAlu
opLat=1
pipelined=true

[system.cpu0.fuPool.FUList1]
type=FUDesc
children=opList0 opList1
count=2
eventq_index=0
opList=system.cpu0.fuPool.FUList1.opList0 system.cpu0.fuPool.FUList1.opList1

[system.cpu0.fuPool.FUList1.opList0]
type=OpDesc
eventq_index=0
opClass=IntMult
opLat=3
pipelined=true

[system.cpu0.fuPool.FUList1.opList1]
type=OpDesc
eventq_index=0
opClass=IntDiv
opLat=1
pipelined=false

[system.cpu0.fuPool.FUList2]
type=FUDesc
children=opList0 opList1 opList2
count=4
eventq_index=0
opList=system.cpu0.fuPool.FUList2.opList0 system.cpu0.fuPool.FUList2.opList1 system.cpu0.fuPool.FUList2.opList2

[system.cpu0.fuPool.FUList2.opList0]
type=OpDesc
eventq_index=0
opClass=FloatAdd
opLat=2
pipelined=true

[system.cpu0.fuPool.FUList2.opList1]
type=OpDesc
eventq_index=0
opClass=FloatCmp
opLat=2
pipelined=true

[system.cpu0.fuPool.FUList2.opList2]
type=OpDesc
eventq_index=0
opClass=FloatCvt
opLat=2
pipelined=true

[system.cpu0.fuPool.FUList3]
type=FUDesc
children=opList0 opList1 opList2 opList3 opList4
count=2
eventq_index=0
opList=system.cpu0.fuPool.FUList3.opList0 system.cpu0.fuPool.FUList3.opList1 system.cpu0.fuPool.FUList3.opList2 system.cpu0.fuPool.FUList3.opList3 system.cpu0.fuPool.FUList3.opList4

[system.cpu0.fuPool.FUList3.opList0]
type=OpDesc
eventq_index=0
opClass=FloatMult
opLat=4
pipelined=true

[system.cpu0.fuPool.FUList3.opList1]
type=OpDesc
eventq_index=0
opClass=FloatMultAcc
opLat=5
pipelined=true

[system.cpu0.fuPool.FUList3.opList2]
type=OpDesc
eventq_index=0
opClass=FloatMisc
opLat=3
pipelined=true

[system.cpu0.fuPool.FUList3.opList3]
type=OpDesc
eventq_index=0
opClass=FloatDiv
opLat=12
pipelined=false

[system.cpu0.fuPool.FUList3.opList4]
type=OpDesc
eventq_index=0
opClass=FloatSqrt
opLat=24
pipelined=false

[system.cpu0.fuPool.FUList4]
type=FUDesc
children=opList0 opList1
count=0
eventq_index=0
opList=system.cpu0.fuPool.FUList4.opList0 system.cpu0.fuPool.FUList4.opList1

[system.cpu0.fuPool.FUList4.opList0]
type=OpDesc
eventq_index=0
opClass=MemRead
opLat=1
pipelined=true

[system.cpu0.fuPool.FUList4.opList1]
type=OpDesc
eventq_index=0
opClass=FloatMemRead
opLat=1
pipelined=true

[system.cpu0.fuPool.FUList5]
type=FUDesc
children=opList00 opList01 opList02 opList03 opList04 opList05 opList06 opList07 opList08 opList09 opList10 opList11 opList12 opList13 opList14 opList15 opList16 opList17 opList18 opList19
count=4
eventq_index=0
opList=system.cpu0.fuPool.FUList5.opList00 system.cpu0.fuPool.FUList5.opList01 system.cpu0.fuPool.FUList5.opList02 system.cpu0.fuPool.FUList5.opList03 system.cpu0.fuPool.FUList5.opList04 system.cpu0.fuPool.FUList5.opList05 system.cpu0.fuPool.FUList5.opList06 system.cpu0.fuPool.FUList5.opList07 system.cpu0.fuPool.FUList5.opList08 system.cpu0.fuPool.FUList5.opList09 system.cpu0.fuPool.FUList5.opList10 system.cpu0.fuPool.FUList5.opList11 system.cpu0.fuPool.FUList5.opList12 system.cpu0.fuPool.FUList5.opList13 system.cpu0.fuPool.FUList5.opList14 system.cpu0.fuPool.FUList5.opList15 system.cpu0.fuPool.FUList5.opList16 system.cpu0.fuPool.FUList5.opList17 system.cpu0.fuPool.FUList5.opList18 system.cpu0.fuPool.FUList5.opList19

[system.cpu0.fuPool.FUList5.opList00]
type=OpDesc
eventq_index=0
opClass=SimdAdd
opLat=1
pipelined=true

[system.cpu0.fuPool.FUList5.opList01]
type=OpDesc
eventq_index=0
opClass=SimdAddAcc
opLat=1
pipelined=true

[system.cpu0.fuPool.FUList5.opList02]
type=OpDesc
eventq_index=0
opClass=SimdAlu
opLat=1
pipelined=true

[system.cpu0.fuPool.FUList5.opList03]
type=OpDesc
eventq_index=0
opClass=SimdCmp
opLat=1
pipelined=true

[system.cpu0.fuPool.FUList5.opList04]
type=OpDesc
eventq_index=0
opClass=SimdCvt
opLat=1
pipelined=true

[system.cpu0.fuPool.FUList5.opList05]
type=OpDesc
eventq_index=0
opClass=SimdMisc
opLat=1
pipelined=true

[system.cpu0.fuPool.FUList5.opList06]
type=OpDesc
eventq_index=0
opClass=SimdMult
opLat=1
pipelined=true

[system.cpu0.fuPool.FUList5.opList07]
type=OpDesc
eventq_index=0
opClass=SimdMultAcc
opLat=1
pipelined=true

[system.cpu0.fuPool.FUList5.opList08]
type=OpDesc
eventq_index=0
opClass=SimdShift
opLat=1
pipelined=true

[system.cpu0.fuPool.FUList5.opList09]
type=OpDesc
eventq_index=0
opClass=SimdShiftAcc
opLat=1
pipelined=true

[system.cpu0.fuPool.FUList5.opList10]
type=OpDesc
eventq_index=0
opClass=SimdSqrt
opLat=1
pipelined=true

[system.cpu0.fuPool.FUList5.opList11]
type=OpDesc
eventq_index=0
opClass=SimdFloatAdd
opLat=1
pipelined=true

[system.cpu0.fuPool.FUList5.opList12]
type=OpDesc
eventq_index=0
opClass=SimdFloatAlu
opLat=1
pipelined=true

[system.cpu0.fuPool.FUList5.opList13]
type=OpDesc
eventq_index=0
opClass=SimdFloatCmp
opLat=1
pipelined=true

[system.cpu0.fuPool.FUList5.opList14]
type=OpDesc
eventq_index=0
opClass=SimdFloatCvt
opLat=1
pipelined=true

[system.cpu0.fuPool.FUList5.opList15]
type=OpDesc
eventq_index=0
opClass=SimdFloatDiv
opLat=1
pipelined=true

[system.cpu0.fuPool.FUList5.opList16]
type=OpDesc
eventq_index=0
opClass=SimdFloatMisc
opLat=1
pipelined=true

[system.cpu0.fuPool.FUList5.opList17]
type=OpDesc
eventq_index=0
opClass=SimdFloatMult
opLat=1
pipelined=true

[system.cpu0.fuPool.FUList5.opList18]
type=OpDesc
eventq_index=0
opClass=SimdFloatMultAcc
opLat=1
pipelined=true

[system.cpu0.fuPool.FUList5.opList19]
type=OpDesc
eventq_index=0
opClass=SimdFloatSqrt
opLat=1
pipelined=true

[system.cpu0.fuPool.FUList6]
type=FUDesc
children=opList0 opList1
count=0
eventq_index=0
opList=system.cpu0.fuPool.FUList6.opList0 system.cpu0.fuPool.FUList6.opList1

[system.cpu0.fuPool.FUList6.opList0]
type=OpDesc
eventq_index=0
opClass=MemWrite
opLat=1
pipelined=true

[system.cpu0.fuPool.FUList6.opList1]
type=OpDesc
eventq_index=0
opClass=FloatMemWrite
opLat=1
pipelined=true

[system.cpu0.fuPool.FUList7]
type=FUDesc
children=opList0 opList1 opList2 opList3
count=4
eventq_index=0
opList=system.cpu0.fuPool.FUList7.opList0 system.cpu0.fuPool.FUList7.opList1 system.cpu0.fuPool.FUList7.opList2 system.cpu0.fuPool.FUList7.opList3

[system.cpu0.fuPool.FUList7.opList0]
type=OpDesc
eventq_index=0
opClass=MemRead
opLat=1
pipelined=true

[system.cpu0.fuPool.FUList7.opList1]
type=OpDesc
eventq_index=0
opClass=MemWrite
opLat=1
pipelined=true

[system.cpu0.fuPool.FUList7.opList2]
type=OpDesc
eventq_index=0
opClass=FloatMemRead
opLat=1
pipelined=true

[system.cpu0.fuPool.FUList7.opList3]
type=OpDesc
eventq_index=0
opClass=FloatMemWrite
opLat=1
pipelined=true

[system.cpu0.fuPool.FUList8]
type=FUDesc
children=opList
count=1
eventq_index=0
opList=system.cpu0.fuPool.FUList8.opList

[system.cpu0.fuPool.FUList8.opList]
type=OpDesc
eventq_index=0
opClass=IprAccess
opLat=3
pipelined=false

[system.cpu0.icache]
type=Cache
children=replacement_policy tags
addr_ranges=0:18446744073709551615:0:0:0:0
assoc=8
clk_domain=system.cpu_clk_domain
clusivity=mostly_incl
data_latency=2
default_p_state=UNDEFINED
demand_mshr_reserve=1
eventq_index=0
is_read_only=true
max_miss_count=0
mshrs=4
p_state_clk_gate_bins=20
p_state_clk_gate_max=1000000000000
p_state_clk_gate_min=1000
power_model=
prefetch_on_access=false
prefetcher=Null
replacement_policy=system.cpu0.icache.replacement_policy
response_latency=2
sequential_access=false
size=32768
system=system
tag_latency=2
tags=system.cpu0.icache.tags
tgts_per_mshr=20
warmup_percentage=0
write_buffers=8
writeback_clean=true
cpu_side=system.cpu0.icache_port
mem_side=system.cpu0.toL2Bus.slave[0]

[system.cpu0.icache.replacement_policy]
type=LRURP
eventq_index=0

[system.cpu0.icache.tags]
type=BaseSetAssoc
assoc=8
block_size=64
clk_domain=system.cpu_clk_domain
data_latency=2
default_p_state=UNDEFINED
eventq_index=0
p_state_clk_gate_bins=20
p_state_clk_gate_max=1000000000000
p_state_clk_gate_min=1000
power_model=
replacement_policy=system.cpu0.icache.replacement_policy
sequential_access=false
size=32768
tag_latency=2
warmup_percentage=0

[system.cpu0.interrupts]
type=X86LocalApic
clk_domain=system.cpu0.apic_clk_domain
default_p_state=UNDEFINED
eventq_index=0
int_latency=1000
p_state_clk_gate_bins=20
p_state_clk_gate_max=1000000000000
p_state_clk_gate_min=1000
pio_addr=2305843009213693952
pio_latency=100000
power_model=
system=system
int_master=system.membus.slave[2]
int_slave=system.membus.master[1]
pio=system.membus.master[0]

[system.cpu0.isa]
type=X86ISA
eventq_index=0

[system.cpu0.itb]
type=X86TLB
children=walker
eventq_index=0
size=64
walker=system.cpu0.itb.walker

[system.cpu0.itb.walker]
type=X86PagetableWalker
clk_domain=system.cpu_clk_domain
default_p_state=UNDEFINED
eventq_index=0
num_squash_per_cycle=4
p_state_clk_gate_bins=20
p_state_clk_gate_max=1000000000000
p_state_clk_gate_min=1000
power_model=
system=system
port=system.cpu0.itb_walker_cache.cpu_side

[system.cpu0.itb_walker_cache]
type=Cache
children=replacement_policy tags
addr_ranges=0:18446744073709551615:0:0:0:0
assoc=2
clk_domain=system.cpu_clk_domain
clusivity=mostly_incl
data_latency=2
default_p_state=UNDEFINED
demand_mshr_reserve=1
eventq_index=0
is_read_only=false
max_miss_count=0
mshrs=10
p_state_clk_gate_bins=20
p_state_clk_gate_max=1000000000000
p_state_clk_gate_min=1000
power_model=
prefetch_on_access=false
prefetcher=Null
replacement_policy=system.cpu0.itb_walker_cache.replacement_policy
response_latency=2
sequential_access=false
size=1024
system=system
tag_latency=2
tags=system.cpu0.itb_walker_cache.tags
tgts_per_mshr=12
warmup_percentage=0
write_buffers=8
writeback_clean=false
cpu_side=system.cpu0.itb.walker.port
mem_side=system.cpu0.toL2Bus.slave[2]

[system.cpu0.itb_walker_cache.replacement_policy]
type=LRURP
eventq_index=0

[system.cpu0.itb_walker_cache.tags]
type=BaseSetAssoc
assoc=2
block_size=64
clk_domain=system.cpu_clk_domain
data_latency=2
default_p_state=UNDEFINED
eventq_index=0
p_state_clk_gate_bins=20
p_state_clk_gate_max=1000000000000
p_state_clk_gate_min=1000
power_model=
replacement_policy=system.cpu0.itb_walker_cache.replacement_policy
sequential_access=false
size=1024
tag_latency=2
warmup_percentage=0

[system.cpu0.l2cache]
type=Cache
children=replacement_policy tags
addr_ranges=0:18446744073709551615:0:0:0:0
assoc=4
clk_domain=system.cpu_clk_domain
clusivity=mostly_incl
data_latency=8
default_p_state=UNDEFINED
demand_mshr_reserve=1
eventq_index=0
is_read_only=false
max_miss_count=0
mshrs=20
p_state_clk_gate_bins=20
p_state_clk_gate_max=1000000000000
p_state_clk_gate_min=1000
power_model=
prefetch_on_access=false
prefetcher=Null
replacement_policy=system.cpu0.l2cache.replacement_policy
response_latency=8
sequential_access=false
size=262144
system=system
tag_latency=8
tags=system.cpu0.l2cache.tags
tgts_per_mshr=12
warmup_percentage=0
write_buffers=8
writeback_clean=false
cpu_side=system.cpu0.toL2Bus.master[0]
mem_side=system.tol3bus.slave[0]

[system.cpu0.l2cache.replacement_policy]
type=LRURP
eventq_index=0

[system.cpu0.l2cache.tags]
type=BaseSetAssoc
assoc=4
block_size=64
clk_domain=system.cpu_clk_domain
data_latency=8
default_p_state=UNDEFINED
eventq_index=0
p_state_clk_gate_bins=20
p_state_clk_gate_max=1000000000000
p_state_clk_gate_min=1000
power_model=
replacement_policy=system.cpu0.l2cache.replacement_policy
sequential_access=false
size=262144
tag_latency=8
warmup_percentage=0

[system.cpu0.toL2Bus]
type=CoherentXBar
children=snoop_filter
clk_domain=system.cpu_clk_domain
default_p_state=UNDEFINED
eventq_index=0
forward_latency=0
frontend_latency=1
p_state_clk_gate_bins=20
p_state_clk_gate_max=1000000000000
p_state_clk_gate_min=1000
point_of_coherency=false
point_of_unification=true
power_model=
response_latency=1
snoop_filter=system.cpu0.toL2Bus.snoop_filter
snoop_response_latency=1
system=system
use_default_range=false
width=32
master=system.cpu0.l2cache.cpu_side
slave=system.cpu0.icache.mem_side system.cpu0.dcache.mem_side system.cpu0.itb_walker_cache.mem_side system.cpu0.dtb_walker_cache.mem_side

[system.cpu0.toL2Bus.snoop_filter]
type=SnoopFilter
eventq_index=0
lookup_latency=0
max_capacity=8388608
system=system

[system.cpu0.tracer]
type=ExeTracer
eventq_index=0

[system.cpu0.workload]
type=Process
cmd=/root/gem5/spec2006/hmmer_base.amd64-m64-gcc42-nn --fixed 0 --mean 325 --num 45000 --sd 200 --seed 0 bombesin.hmm
cwd=/root/gem5/spec2006
drivers=
egid=100
env=
errout=cerr
euid=100
eventq_index=0
executable=/root/gem5/spec2006/hmmer_base.amd64-m64-gcc42-nn
gid=100
input=cin
kvmInSE=false
maxStackSize=67108864
output=cout
pgid=100
pid=100
ppid=0
simpoint=0
system=system
uid=100
useArchPT=false

[system.cpu1]
type=DerivO3CPU
children=apic_clk_domain branchPred dcache dtb dtb_walker_cache fuPool icache interrupts isa itb itb_walker_cache l2cache toL2Bus tracer workload
LFSTSize=1024
LQEntries=32
LSQCheckLoads=true
LSQDepCheckShift=4
SQEntries=32
SSITSize=1024
activity=0
backComSize=5
branchPred=system.cpu1.branchPred
cacheStorePorts=200
checker=Null
clk_domain=system.cpu_clk_domain
commitToDecodeDelay=1
commitToFetchDelay=1
commitToIEWDelay=1
commitToRenameDelay=1
commitWidth=8
cpu_id=1
decodeToFetchDelay=1
decodeToRenameDelay=1
decodeWidth=8
default_p_state=UNDEFINED
dispatchWidth=8
do_checkpoint_insts=true
do_quiesce=true
do_statistics_insts=true
dtb=system.cpu1.dtb
eventq_index=0
fetchBufferSize=64
fetchQueueSize=32
fetchToDecodeDelay=1
fetchTrapLatency=1
fetchWidth=8
forwardComSize=5
fuPool=system.cpu1.fuPool
function_trace=false
function_trace_start=0
iewToCommitDelay=1
iewToDecodeDelay=1
iewToFetchDelay=1
iewToRenameDelay=1
interrupts=system.cpu1.interrupts
isa=system.cpu1.isa
issueToExecuteDelay=1
issueWidth=8
itb=system.cpu1.itb
max_insts_all_threads=0
max_insts_any_thread=10000000
max_loads_all_threads=0
max_loads_any_thread=0
needsTSO=true
numIQEntries=64
numPhysCCRegs=1280
numPhysFloatRegs=256
numPhysIntRegs=256
numPhysVecRegs=256
numROBEntries=192
numRobs=1
numThreads=1
p_state_clk_gate_bins=20
p_state_clk_gate_max=1000000000000
p_state_clk_gate_min=1000
power_gating_on_idle=false
power_model=
profile=0
progress_interval=0
pwr_gating_latency=300
renameToDecodeDelay=1
renameToFetchDelay=1
renameToIEWDelay=2
renameToROBDelay=1
renameWidth=8
simpoint_start_insts=
smtCommitPolicy=RoundRobin
smtFetchPolicy=SingleThread
smtIQPolicy=Partitioned
smtIQThreshold=100
smtLSQPolicy=Partitioned
smtLSQThreshold=100
smtNumFetchingThreads=1
smtROBPolicy=Partitioned
smtROBThreshold=100
socket_id=0
squashWidth=8
store_set_clear_period=250000
switched_out=false
syscallRetryLatency=10000
system=system
tracer=system.cpu1.tracer
trapLatency=13
wait_for_remote_gdb=false
wbWidth=8
workload=system.cpu1.workload
dcache_port=system.cpu1.dcache.cpu_side
icache_port=system.cpu1.icache.cpu_side

[system.cpu1.apic_clk_domain]
type=DerivedClockDomain
clk_divider=16
clk_domain=system.cpu_clk_domain
eventq_index=0

[system.cpu1.branchPred]
type=TournamentBP
BTBEntries=4096
BTBTagSize=16
RASSize=16
choiceCtrBits=2
choicePredictorSize=8192
eventq_index=0
globalCtrBits=2
globalPredictorSize=8192
indirectHashGHR=true
indirectHashTargets=true
indirectPathLength=3
indirectSets=256
indirectTagSize=16
indirectWays=2
instShiftAmt=2
localCtrBits=2
localHistoryTableSize=2048
localPredictorSize=2048
numThreads=1
useIndirect=true

[system.cpu1.dcache]
type=Cache
children=replacement_policy tags
addr_ranges=0:18446744073709551615:0:0:0:0
assoc=8
clk_domain=system.cpu_clk_domain
clusivity=mostly_incl
data_latency=2
default_p_state=UNDEFINED
demand_mshr_reserve=1
eventq_index=0
is_read_only=false
max_miss_count=0
mshrs=4
p_state_clk_gate_bins=20
p_state_clk_gate_max=1000000000000
p_state_clk_gate_min=1000
power_model=
prefetch_on_access=false
prefetcher=Null
replacement_policy=system.cpu1.dcache.replacement_policy
response_latency=2
sequential_access=false
size=32768
system=system
tag_latency=2
tags=system.cpu1.dcache.tags
tgts_per_mshr=20
warmup_percentage=0
write_buffers=8
writeback_clean=false
cpu_side=system.cpu1.dcache_port
mem_side=system.cpu1.toL2Bus.slave[1]

[system.cpu1.dcache.replacement_policy]
type=LRURP
eventq_index=0

[system.cpu1.dcache.tags]
type=BaseSetAssoc
assoc=8
block_size=64
clk_domain=system.cpu_clk_domain
data_latency=2
default_p_state=UNDEFINED
eventq_index=0
p_state_clk_gate_bins=20
p_state_clk_gate_max=1000000000000
p_state_clk_gate_min=1000
power_model=
replacement_policy=system.cpu1.dcache.replacement_policy
sequential_access=false
size=32768
tag_latency=2
warmup_percentage=0

[system.cpu1.dtb]
type=X86TLB
children=walker
eventq_index=0
size=64
walker=system.cpu1.dtb.walker

[system.cpu1.dtb.walker]
type=X86PagetableWalker
clk_domain=system.cpu_clk_domain
default_p_state=UNDEFINED
eventq_index=0
num_squash_per_cycle=4
p_state_clk_gate_bins=20
p_state_clk_gate_max=1000000000000
p_state_clk_gate_min=1000
power_model=
system=system
port=system.cpu1.dtb_walker_cache.cpu_side

[system.cpu1.dtb_walker_cache]
type=Cache
children=replacement_policy tags
addr_ranges=0:18446744073709551615:0:0:0:0
assoc=2
clk_domain=system.cpu_clk_domain
clusivity=mostly_incl
data_latency=2
default_p_state=UNDEFINED
demand_mshr_reserve=1
eventq_index=0
is_read_only=false
max_miss_count=0
mshrs=10
p_state_clk_gate_bins=20
p_state_clk_gate_max=1000000000000
p_state_clk_gate_min=1000
power_model=
prefetch_on_access=false
prefetcher=Null
replacement_policy=system.cpu1.dtb_walker_cache.replacement_policy
response_latency=2
sequential_access=false
size=1024
system=system
tag_latency=2
tags=system.cpu1.dtb_walker_cache.tags
tgts_per_mshr=12
warmup_percentage=0
write_buffers=8
writeback_clean=false
cpu_side=system.cpu1.dtb.walker.port
mem_side=system.cpu1.toL2Bus.slave[3]

[system.cpu1.dtb_walker_cache.replacement_policy]
type=LRURP
eventq_index=0

[system.cpu1.dtb_walker_cache.tags]
type=BaseSetAssoc
assoc=2
block_size=64
clk_domain=system.cpu_clk_domain
data_latency=2
default_p_state=UNDEFINED
eventq_index=0
p_state_clk_gate_bins=20
p_state_clk_gate_max=1000000000000
p_state_clk_gate_min=1000
power_model=
replacement_policy=system.cpu1.dtb_walker_cache.replacement_policy
sequential_access=false
size=1024
tag_latency=2
warmup_percentage=0

[system.cpu1.fuPool]
type=FUPool
children=FUList0 FUList1 FUList2 FUList3 FUList4 FUList5 FUList6 FUList7 FUList8
FUList=system.cpu1.fuPool.FUList0 system.cpu1.fuPool.FUList1 system.cpu1.fuPool.FUList2 system.cpu1.fuPool.FUList3 system.cpu1.fuPool.FUList4 system.cpu1.fuPool.FUList5 system.cpu1.fuPool.FUList6 system.cpu1.fuPool.FUList7 system.cpu1.fuPool.FUList8
eventq_index=0

[system.cpu1.fuPool.FUList0]
type=FUDesc
children=opList
count=6
eventq_index=0
opList=system.cpu1.fuPool.FUList0.opList

[system.cpu1.fuPool.FUList0.opList]
type=OpDesc
eventq_index=0
opClass=IntAlu
opLat=1
pipelined=true

[system.cpu1.fuPool.FUList1]
type=FUDesc
children=opList0 opList1
count=2
eventq_index=0
opList=system.cpu1.fuPool.FUList1.opList0 system.cpu1.fuPool.FUList1.opList1

[system.cpu1.fuPool.FUList1.opList0]
type=OpDesc
eventq_index=0
opClass=IntMult
opLat=3
pipelined=true

[system.cpu1.fuPool.FUList1.opList1]
type=OpDesc
eventq_index=0
opClass=IntDiv
opLat=1
pipelined=false

[system.cpu1.fuPool.FUList2]
type=FUDesc
children=opList0 opList1 opList2
count=4
eventq_index=0
opList=system.cpu1.fuPool.FUList2.opList0 system.cpu1.fuPool.FUList2.opList1 system.cpu1.fuPool.FUList2.opList2

[system.cpu1.fuPool.FUList2.opList0]
type=OpDesc
eventq_index=0
opClass=FloatAdd
opLat=2
pipelined=true

[system.cpu1.fuPool.FUList2.opList1]
type=OpDesc
eventq_index=0
opClass=FloatCmp
opLat=2
pipelined=true

[system.cpu1.fuPool.FUList2.opList2]
type=OpDesc
eventq_index=0
opClass=FloatCvt
opLat=2
pipelined=true

[system.cpu1.fuPool.FUList3]
type=FUDesc
children=opList0 opList1 opList2 opList3 opList4
count=2
eventq_index=0
opList=system.cpu1.fuPool.FUList3.opList0 system.cpu1.fuPool.FUList3.opList1 system.cpu1.fuPool.FUList3.opList2 system.cpu1.fuPool.FUList3.opList3 system.cpu1.fuPool.FUList3.opList4

[system.cpu1.fuPool.FUList3.opList0]
type=OpDesc
eventq_index=0
opClass=FloatMult
opLat=4
pipelined=true

[system.cpu1.fuPool.FUList3.opList1]
type=OpDesc
eventq_index=0
opClass=FloatMultAcc
opLat=5
pipelined=true

[system.cpu1.fuPool.FUList3.opList2]
type=OpDesc
eventq_index=0
opClass=FloatMisc
opLat=3
pipelined=true

[system.cpu1.fuPool.FUList3.opList3]
type=OpDesc
eventq_index=0
opClass=FloatDiv
opLat=12
pipelined=false

[system.cpu1.fuPool.FUList3.opList4]
type=OpDesc
eventq_index=0
opClass=FloatSqrt
opLat=24
pipelined=false

[system.cpu1.fuPool.FUList4]
type=FUDesc
children=opList0 opList1
count=0
eventq_index=0
opList=system.cpu1.fuPool.FUList4.opList0 system.cpu1.fuPool.FUList4.opList1

[system.cpu1.fuPool.FUList4.opList0]
type=OpDesc
eventq_index=0
opClass=MemRead
opLat=1
pipelined=true

[system.cpu1.fuPool.FUList4.opList1]
type=OpDesc
eventq_index=0
opClass=FloatMemRead
opLat=1
pipelined=true

[system.cpu1.fuPool.FUList5]
type=FUDesc
children=opList00 opList01 opList02 opList03 opList04 opList05 opList06 opList07 opList08 opList09 opList10 opList11 opList12 opList13 opList14 opList15 opList16 opList17 opList18 opList19
count=4
eventq_index=0
opList=system.cpu1.fuPool.FUList5.opList00 system.cpu1.fuPool.FUList5.opList01 system.cpu1.fuPool.FUList5.opList02 system.cpu1.fuPool.FUList5.opList03 system.cpu1.fuPool.FUList5.opList04 system.cpu1.fuPool.FUList5.opList05 system.cpu1.fuPool.FUList5.opList06 system.cpu1.fuPool.FUList5.opList07 system.cpu1.fuPool.FUList5.opList08 system.cpu1.fuPool.FUList5.opList09 system.cpu1.fuPool.FUList5.opList10 system.cpu1.fuPool.FUList5.opList11 system.cpu1.fuPool.FUList5.opList12 system.cpu1.fuPool.FUList5.opList13 system.cpu1.fuPool.FUList5.opList14 system.cpu1.fuPool.FUList5.opList15 system.cpu1.fuPool.FUList5.opList16 system.cpu1.fuPool.FUList5.opList17 system.cpu1.fuPool.FUList5.opList18 system.cpu1.fuPool.FUList5.opList19

[system.cpu1.fuPool.FUList5.opList00]
type=OpDesc
eventq_index=0
opClass=SimdAdd
opLat=1
pipelined=true

[system.cpu1.fuPool.FUList5.opList01]
type=OpDesc
eventq_index=0
opClass=SimdAddAcc
opLat=1
pipelined=true

[system.cpu1.fuPool.FUList5.opList02]
type=OpDesc
eventq_index=0
opClass=SimdAlu
opLat=1
pipelined=true

[system.cpu1.fuPool.FUList5.opList03]
type=OpDesc
eventq_index=0
opClass=SimdCmp
opLat=1
pipelined=true

[system.cpu1.fuPool.FUList5.opList04]
type=OpDesc
eventq_index=0
opClass=SimdCvt
opLat=1
pipelined=true

[system.cpu1.fuPool.FUList5.opList05]
type=OpDesc
eventq_index=0
opClass=SimdMisc
opLat=1
pipelined=true

[system.cpu1.fuPool.FUList5.opList06]
type=OpDesc
eventq_index=0
opClass=SimdMult
opLat=1
pipelined=true

[system.cpu1.fuPool.FUList5.opList07]
type=OpDesc
eventq_index=0
opClass=SimdMultAcc
opLat=1
pipelined=true

[system.cpu1.fuPool.FUList5.opList08]
type=OpDesc
eventq_index=0
opClass=SimdShift
opLat=1
pipelined=true

[system.cpu1.fuPool.FUList5.opList09]
type=OpDesc
eventq_index=0
opClass=SimdShiftAcc
opLat=1
pipelined=true

[system.cpu1.fuPool.FUList5.opList10]
type=OpDesc
eventq_index=0
opClass=SimdSqrt
opLat=1
pipelined=true
